 energy: -64.641854352865 gnorm: 0.000130312340 xtb: 6.4.1 (afa7bdf)
  CDK     12222317083D

 41 43  0  0  0  0  0  0  0  0999 V2000
   -0.5794    0.1133    0.0772 Ru  0  0  0  0  0  0  0  0  0  0  0  0
    1.1640    0.0930   -1.3329 O   0  0  0  0  0  0  0  0  0  0  0  0
    0.6711   -0.9069    1.0725 C   0  0  0  0  0  0  0  0  0  0  0  0
    0.5645   -1.2723    2.0981 H   0  0  0  0  0  0  0  0  0  0  0  0
    1.3653    0.9643   -2.4445 C   0  0  0  0  0  0  0  0  0  0  0  0
    1.7761    0.3831   -3.2835 H   0  0  0  0  0  0  0  0  0  0  0  0
   -0.0194    1.4836   -2.8129 C   0  0  0  0  0  0  0  0  0  0  0  0
    0.0418    2.1777   -3.6466 H   0  0  0  0  0  0  0  0  0  0  0  0
   -0.4431    2.0126   -1.9522 H   0  0  0  0  0  0  0  0  0  0  0  0
   -0.6716    0.6553   -3.0906 H   0  0  0  0  0  0  0  0  0  0  0  0
    2.3017    2.1080   -2.0603 C   0  0  0  0  0  0  0  0  0  0  0  0
    1.8834    2.6442   -1.2095 H   0  0  0  0  0  0  0  0  0  0  0  0
    2.4117    2.7947   -2.8952 H   0  0  0  0  0  0  0  0  0  0  0  0
    3.2839    1.7341   -1.7804 H   0  0  0  0  0  0  0  0  0  0  0  0
    2.1662   -0.6793   -0.8489 C   0  0  0  0  0  0  0  0  0  0  0  0
    3.3568   -0.9630   -1.4986 C   0  0  0  0  0  0  0  0  0  0  0  0
    3.5701   -0.5569   -2.4753 H   0  0  0  0  0  0  0  0  0  0  0  0
    4.2895   -1.7921   -0.8942 C   0  0  0  0  0  0  0  0  0  0  0  0
    5.2122   -2.0109   -1.4101 H   0  0  0  0  0  0  0  0  0  0  0  0
    4.0486   -2.3360    0.3594 C   0  0  0  0  0  0  0  0  0  0  0  0
    4.7870   -2.9752    0.8191 H   0  0  0  0  0  0  0  0  0  0  0  0
    2.8696   -2.0601    1.0159 C   0  0  0  0  0  0  0  0  0  0  0  0
    2.6749   -2.4797    1.9921 H   0  0  0  0  0  0  0  0  0  0  0  0
    1.8964   -1.2304    0.4349 C   0  0  0  0  0  0  0  0  0  0  0  0
    0.1208    2.1793    0.8293 Cl  0  0  0  0  0  0  0  0  0  0  0  0
   -1.7358   -1.2300   -1.3625 Cl  0  0  0  0  0  0  0  0  0  0  0  0
   -2.1567   -0.0005    1.3081 C   0  0  0  0  0  0  0  0  0  0  0  0
   -2.6041   -1.0269    2.0585 N   0  0  0  0  0  0  0  0  0  0  0  0
   -3.7764   -0.6836    2.6782 C   0  0  0  0  0  0  0  0  0  0  0  0
   -4.0758    0.5767    2.2902 C   0  0  0  0  0  0  0  0  0  0  0  0
   -3.0802    0.9750    1.4415 N   0  0  0  0  0  0  0  0  0  0  0  0
   -4.2987   -1.3550    3.3281 H   0  0  0  0  0  0  0  0  0  0  0  0
   -4.9054    1.2060    2.5390 H   0  0  0  0  0  0  0  0  0  0  0  0
   -3.0732    2.2215    0.7223 C   0  0  0  0  0  0  0  0  0  0  0  0
   -2.4604    2.9658    1.2359 H   0  0  0  0  0  0  0  0  0  0  0  0
   -2.6552    2.0559   -0.2782 H   0  0  0  0  0  0  0  0  0  0  0  0
   -4.0938    2.5901    0.6255 H   0  0  0  0  0  0  0  0  0  0  0  0
   -2.0281   -2.3414    2.1393 C   0  0  0  0  0  0  0  0  0  0  0  0
   -1.4295   -2.4504    3.0453 H   0  0  0  0  0  0  0  0  0  0  0  0
   -2.8260   -3.0838    2.1497 H   0  0  0  0  0  0  0  0  0  0  0  0
   -1.3970   -2.5010    1.2636 H   0  0  0  0  0  0  0  0  0  0  0  0
  2  1  1  0  0  0  0 
  3  1  2  0  0  0  0 
  4  3  1  0  0  0  0 
  5  2  1  0  0  0  0 
  6  5  1  0  0  0  0 
  7  5  1  0  0  0  0 
  8  7  1  0  0  0  0 
  9  7  1  0  0  0  0 
 10  7  1  0  0  0  0 
 11  5  1  0  0  0  0 
 12 11  1  0  0  0  0 
 13 11  1  0  0  0  0 
 14 11  1  0  0  0  0 
 15  2  1  0  0  0  0 
 15 24  1  0  0  0  0 
 16 15  2  0  0  0  0 
 17 16  1  0  0  0  0 
 18 16  1  0  0  0  0 
 19 18  1  0  0  0  0 
 20 18  2  0  0  0  0 
 21 20  1  0  0  0  0 
 22 20  1  0  0  0  0 
 22 24  2  0  0  0  0 
 23 22  1  0  0  0  0 
 24  3  1  0  0  0  0 
  1 25  1  0  0  0  0 
  1 26  1  0  0  0  0 
 28 27  1  0  0  0  0 
 29 28  1  0  0  0  0 
 30 29  2  0  0  0  0 
 30 31  1  0  0  0  0 
 31 27  1  0  0  0  0 
  1 27  1  0  0  0  0 
 29 32  1  0  0  0  0 
 30 33  1  0  0  0  0 
 35 34  1  0  0  0  0 
 36 34  1  0  0  0  0 
 37 34  1  0  0  0  0 
 31 34  1  0  0  0  0 
 39 38  1  0  0  0  0 
 40 38  1  0  0  0  0 
 41 38  1  0  0  0  0 
 28 38  1  0  0  0  0 
M  END
$$$$
