
  CDK     12152312263D

 27 29  0  0  0  0  0  0  0  0999 V2000
    0.3656    0.9589   -2.7240 H   0  0  0  0  0  0  0  0  0  0  0  0
    1.5163    0.5278   -2.7877 C   0  0  0  0  0  0  0  0  0  0  0  0
    1.4910    0.6408   -3.8938 H   0  0  0  0  0  0  0  0  0  0  0  0
    1.3767   -0.7805   -2.0832 C   0  0  0  0  0  0  0  0  0  0  0  0
    2.2712   -1.1736   -1.5697 H   0  0  0  0  0  0  0  0  0  0  0  0
    0.7462   -1.5412   -2.5770 H   0  0  0  0  0  0  0  0  0  0  0  0
    0.3711    0.6394   -0.9792 Ru  0  0  0  0  0  0  0  0  0  0  0  0
    2.1306    1.5067   -1.8833 C   0  0  0  0  0  0  0  0  0  0  0  0
    3.0175    1.2109   -1.3090 H   0  0  0  0  0  0  0  0  0  0  0  0
    2.0650    2.5741   -2.1562 H   0  0  0  0  0  0  0  0  0  0  0  0
    1.9721    0.4692    0.8549 Cl  0  0  0  0  0  0  0  0  0  0  0  0
   -1.7471    0.2563   -1.9965 Cl  0  0  0  0  0  0  0  0  0  0  0  0
   -0.6908    0.1375    0.6949 C   0  0  0  0  0  0  0  0  0  0  0  0
   -1.0730   -1.0954    1.1234 N   0  0  0  0  0  0  0  0  0  0  0  0
   -1.8213   -0.9987    2.2913 C   0  0  0  0  0  0  0  0  0  0  0  0
   -1.9076    0.3363    2.5952 C   0  0  0  0  0  0  0  0  0  0  0  0
   -1.2183    1.0131    1.5963 N   0  0  0  0  0  0  0  0  0  0  0  0
   -2.2313   -1.8763    2.7950 H   0  0  0  0  0  0  0  0  0  0  0  0
   -2.3977    0.8553    3.4214 H   0  0  0  0  0  0  0  0  0  0  0  0
   -0.9610    2.4445    1.5286 C   0  0  0  0  0  0  0  0  0  0  0  0
    0.1171    2.6308    1.7027 H   0  0  0  0  0  0  0  0  0  0  0  0
   -1.2415    2.8217    0.5256 H   0  0  0  0  0  0  0  0  0  0  0  0
   -1.5683    2.9626    2.2917 H   0  0  0  0  0  0  0  0  0  0  0  0
   -0.7166   -2.3222    0.4247 C   0  0  0  0  0  0  0  0  0  0  0  0
    0.3839   -2.3732    0.3281 H   0  0  0  0  0  0  0  0  0  0  0  0
   -1.0872   -3.1852    1.0059 H   0  0  0  0  0  0  0  0  0  0  0  0
   -1.1706   -2.3155   -0.5842 H   0  0  0  0  0  0  0  0  0  0  0  0
  1  2  1  0  0  0  0 
  1  7  1  0  0  0  0 
  2  3  1  0  0  0  0 
  2  4  1  0  0  0  0 
  4  5  1  0  0  0  0 
  6  4  1  0  0  0  0 
  7  8  1  0  0  0  0 
  7  4  1  0  0  0  0 
  8  2  1  0  0  0  0 
  8  9  1  0  0  0  0 
 10  8  1  0  0  0  0 
  7 11  1  0  0  0  0 
  7 12  1  0  0  0  0 
 14 13  1  0  0  0  0 
 15 14  1  0  0  0  0 
 16 15  2  0  0  0  0 
 16 17  1  0  0  0  0 
 17 13  1  0  0  0  0 
 15 18  1  0  0  0  0 
 16 19  1  0  0  0  0 
 21 20  1  0  0  0  0 
 22 20  1  0  0  0  0 
 23 20  1  0  0  0  0 
 17 20  1  0  0  0  0 
 25 24  1  0  0  0  0 
 26 24  1  0  0  0  0 
 27 24  1  0  0  0  0 
 14 24  1  0  0  0  0 
  7 13  1  0  0  0  0 
M  END
$$$$
