
  CDK     12152312173D

 15 15  0  0  0  0  0  0  0  0999 V2000
   -0.0020    0.2055   -0.9417 C   0  0  0  0  0  0  0  0  0  0  0  0
   -1.0640    0.0191   -0.1182 N   0  0  0  0  0  0  0  0  0  0  0  0
   -0.6737   -0.2589    1.1686 C   0  0  0  0  0  0  0  0  0  0  0  0
    0.6786   -0.2499    1.1677 C   0  0  0  0  0  0  0  0  0  0  0  0
    1.0635    0.0332   -0.1196 N   0  0  0  0  0  0  0  0  0  0  0  0
   -1.3738   -0.4360    1.9601 H   0  0  0  0  0  0  0  0  0  0  0  0
    1.3820   -0.4175    1.9584 H   0  0  0  0  0  0  0  0  0  0  0  0
    2.4276    0.1355   -0.5475 C   0  0  0  0  0  0  0  0  0  0  0  0
    2.9464    0.9311   -0.0062 H   0  0  0  0  0  0  0  0  0  0  0  0
    2.9595   -0.8047   -0.3790 H   0  0  0  0  0  0  0  0  0  0  0  0
    2.4326    0.3642   -1.6114 H   0  0  0  0  0  0  0  0  0  0  0  0
   -2.4298    0.1023   -0.5445 C   0  0  0  0  0  0  0  0  0  0  0  0
   -2.9452   -0.8490   -0.3870 H   0  0  0  0  0  0  0  0  0  0  0  0
   -2.9623    0.8822    0.0062 H   0  0  0  0  0  0  0  0  0  0  0  0
   -2.4394    0.3429   -1.6058 H   0  0  0  0  0  0  0  0  0  0  0  0
  2  1  1  0  0  0  0 
  3  2  1  0  0  0  0 
  4  3  2  0  0  0  0 
  4  5  1  0  0  0  0 
  5  1  1  0  0  0  0 
  3  6  1  0  0  0  0 
  4  7  1  0  0  0  0 
  9  8  1  0  0  0  0 
 10  8  1  0  0  0  0 
 11  8  1  0  0  0  0 
  5  8  1  0  0  0  0 
 13 12  1  0  0  0  0 
 14 12  1  0  0  0  0 
 15 12  1  0  0  0  0 
  2 12  1  0  0  0  0 
M  END
$$$$
